test/data/enwl/networks/network_22/Feeder_6/Loads.dss
New Load.LOAD1 Phases=1 Bus1=85.2 kV=0.23 kW=1 PF=0.95
New Load.LOAD2 Phases=1 Bus1=86.1 kV=0.23 kW=1 PF=0.95
New Load.LOAD3 Phases=1 Bus1=91.2 kV=0.23 kW=1 PF=0.95
New Load.LOAD4 Phases=1 Bus1=130.1 kV=0.23 kW=1 PF=0.95
New Load.LOAD5 Phases=1 Bus1=138.3 kV=0.23 kW=1 PF=0.95
New Load.LOAD6 Phases=1 Bus1=168.3 kV=0.23 kW=1 PF=0.95
New Load.LOAD7 Phases=1 Bus1=178.3 kV=0.23 kW=1 PF=0.95
New Load.LOAD8 Phases=1 Bus1=196.1 kV=0.23 kW=1 PF=0.95
New Load.LOAD9 Phases=1 Bus1=258.2 kV=0.23 kW=1 PF=0.95
New Load.LOAD10 Phases=1 Bus1=262.2 kV=0.23 kW=1 PF=0.95
New Load.LOAD11 Phases=1 Bus1=274.2 kV=0.23 kW=1 PF=0.95
New Load.LOAD12 Phases=1 Bus1=286.3 kV=0.23 kW=1 PF=0.95
New Load.LOAD13 Phases=1 Bus1=298.3 kV=0.23 kW=1 PF=0.95
New Load.LOAD14 Phases=1 Bus1=309.1 kV=0.23 kW=1 PF=0.95
New Load.LOAD15 Phases=1 Bus1=325.3 kV=0.23 kW=1 PF=0.95
New Load.LOAD16 Phases=1 Bus1=348.2 kV=0.23 kW=1 PF=0.95
New Load.LOAD17 Phases=1 Bus1=351.1 kV=0.23 kW=1 PF=0.95
New Load.LOAD18 Phases=1 Bus1=362.2 kV=0.23 kW=1 PF=0.95
New Load.LOAD19 Phases=1 Bus1=381.2 kV=0.23 kW=1 PF=0.95
New Load.LOAD20 Phases=1 Bus1=389.1 kV=0.23 kW=1 PF=0.95
New Load.LOAD21 Phases=1 Bus1=400.1 kV=0.23 kW=1 PF=0.95
New Load.LOAD22 Phases=1 Bus1=433.2 kV=0.23 kW=1 PF=0.95
New Load.LOAD23 Phases=1 Bus1=434.1 kV=0.23 kW=1 PF=0.95
New Load.LOAD24 Phases=1 Bus1=437.3 kV=0.23 kW=1 PF=0.95
New Load.LOAD25 Phases=1 Bus1=446.3 kV=0.23 kW=1 PF=0.95
New Load.LOAD26 Phases=1 Bus1=457.1 kV=0.23 kW=1 PF=0.95
New Load.LOAD27 Phases=1 Bus1=463.3 kV=0.23 kW=1 PF=0.95
New Load.LOAD28 Phases=1 Bus1=516.2 kV=0.23 kW=1 PF=0.95
New Load.LOAD29 Phases=1 Bus1=524.2 kV=0.23 kW=1 PF=0.95
New Load.LOAD30 Phases=1 Bus1=542.3 kV=0.23 kW=1 PF=0.95
New Load.LOAD31 Phases=1 Bus1=544.3 kV=0.23 kW=1 PF=0.95
New Load.LOAD32 Phases=1 Bus1=545.3 kV=0.23 kW=1 PF=0.95
New Load.LOAD33 Phases=1 Bus1=559.2 kV=0.23 kW=1 PF=0.95
New Load.LOAD34 Phases=1 Bus1=574.1 kV=0.23 kW=1 PF=0.95
New Load.LOAD35 Phases=1 Bus1=589.3 kV=0.23 kW=1 PF=0.95
New Load.LOAD36 Phases=1 Bus1=600.2 kV=0.23 kW=1 PF=0.95
New Load.LOAD37 Phases=1 Bus1=601.2 kV=0.23 kW=1 PF=0.95